/*--------------------------------*- C++ -*----------------------------------*\
| =========                 |                                                 |
| \\      /  F ield         | OpenFOAM: The Open Source CFD Toolbox           |
|  \\    /   O peration     | Version:  2.3.1                                 |
|   \\  /    A nd           | Web:      www.OpenFOAM.org                      |
|    \\/     M anipulation  |                                                 |
\*---------------------------------------------------------------------------*/
FoamFile
{
    version     2.0;
    format      ascii;
    class       dictionary;
    location    "system";
    object      postDict;
}
// * * * * * * * * * * * * * * * * * * * * * * * * * * * * * * * * * * * * * //

Timesteps
(
0.0013,
0.0034,
0.0044,
)

Direction : (1 0 0)

Axial locations(unit mm, absolute)
(
5.0, 
7.0,
10.0,
13.0,
16.0,
20.0,
25.0,
30.0,
35.0,
40.0,
45.0,
50.0
)

Radial locations (unit mm)
(
 0.0,
 1.0,
 2.0,
 3.0,
 4.0,
 5.0,
 6.0,
 7.0,
 8.0,
 9.0,
 10.0,
 11.0,
 12.0,
 13.0,
 14.0,
 15.0,
 16.0,
 17.0,
 18.0,
 19.0,
 20.0,
 21.0,
 22.0,
 23.0,
 24.0,
 25.0,
 26.0,
 27.0,
 28.0,
 29.0,
 30.0
)
